<?xml version="1.0" encoding="UTF-8"?>

<!-- generated on 2025-11-06 13:16:35 by Eclipse SUMO netedit Version 1.24.0
<neteditConfiguration xmlns:xsi="http://www.w3.org/2001/XMLSchema-instance" xsi:noNamespaceSchemaLocation="http://sumo.dlr.de/xsd/neteditConfiguration.xsd">

    <input>
        <sumocfg-file value="D:\sumo\ZWYCIESKA\rondo\test.sumocfg"/>
        <route-files value="D:\sumo\ZWYCIESKA\rondo\rondo_config.rou.xml"/>
        <sumo-net-file value="D:\sumo\ZWYCIESKA\rondo\test.net.xml"/>
    </input>

    <output>
        <output-file value="D:\sumo\ZWYCIESKA\rondo\test.net.xml"/>
    </output>

    <processing>
        <geometry.min-radius.fix.railways value="false"/>
        <geometry.avoid-overlap value="false"/>
        <geometry.max-grade.fix value="false"/>
        <offset.disable-normalization value="true"/>
        <lefthand value="0"/>
    </processing>

    <junctions>
        <no-turnarounds value="true"/>
        <junctions.corner-detail value="5"/>
        <junctions.limit-turn-speed value="5.50"/>
        <rectangular-lane-cut value="0"/>
    </junctions>

    <pedestrian>
        <walkingareas value="0"/>
    </pedestrian>

</neteditConfiguration>
-->

<net version="1.20" junctionCornerDetail="5" limitTurnSpeed="5.50" avoidOverlap="0" xmlns:xsi="http://www.w3.org/2001/XMLSchema-instance" xsi:noNamespaceSchemaLocation="http://sumo.dlr.de/xsd/net_file.xsd">

    <location netOffset="0.00,0.00" convBoundary="-415.57,-542.71,341.03,743.96" origBoundary="-10000000000.00,-10000000000.00,10000000000.00,10000000000.00" projParameter="!"/>

    <edge id=":J10_0" function="internal">
        <lane id=":J10_0_0" index="0" speed="8.35" length="6.26" shape="30.18,-5.16 30.37,-3.94 30.94,-2.65 31.89,-1.29 33.20,0.15"/>
    </edge>
    <edge id=":J10_1" function="internal">
        <lane id=":J10_1_0" index="0" speed="8.20" length="6.19" shape="24.06,0.15 25.34,-1.26 26.26,-2.61 26.80,-3.90 26.98,-5.14"/>
    </edge>
    <edge id=":J10_2" function="internal">
        <lane id=":J10_2_0" index="0" speed="6.98" length="7.84" shape="24.06,0.15 26.35,-1.53 28.63,-2.09 30.92,-1.53 33.20,0.15"/>
        <lane id=":J10_2_1" index="1" speed="5.20" length="7.84" shape="26.30,2.43 27.46,1.58 28.63,1.29 29.80,1.58 30.96,2.44"/>
    </edge>
    <edge id=":J11_0" function="internal">
        <lane id=":J11_0_0" index="0" speed="8.43" length="6.35" shape="8.03,24.95 6.73,23.58 5.72,22.66 4.55,22.15 2.74,21.99"/>
    </edge>
    <edge id=":J11_1" function="internal">
        <lane id=":J11_1_0" index="0" speed="6.93" length="7.87" shape="8.03,24.95 6.31,22.65 5.74,20.36 6.33,18.07 8.08,15.79"/>
        <lane id=":J11_1_1" index="1" speed="5.13" length="7.87" shape="10.29,22.68 9.42,21.53 9.14,20.37 9.43,19.23 10.31,18.08"/>
    </edge>
    <edge id=":J11_3" function="internal">
        <lane id=":J11_3_0" index="0" speed="8.55" length="6.40" shape="2.74,18.79 4.56,18.62 5.74,18.09 6.75,17.16 8.08,15.79"/>
    </edge>
    <edge id=":J13_0" function="internal">
        <lane id=":J13_0_0" index="0" speed="13.89" length="0.31" shape="274.88,22.07 274.57,22.07"/>
    </edge>
    <edge id=":J13_1" function="internal">
        <lane id=":J13_1_0" index="0" speed="13.89" length="0.28" shape="274.58,18.87 274.86,18.87"/>
    </edge>
    <edge id=":J5_0" function="internal">
        <lane id=":J5_0_0" index="0" speed="13.89" length="0.30" shape="-331.03,22.24 -331.33,22.24"/>
    </edge>
    <edge id=":J5_1" function="internal">
        <lane id=":J5_1_0" index="0" speed="13.89" length="0.29" shape="-331.33,19.04 -331.03,19.04"/>
    </edge>
    <edge id=":J8_0" function="internal">
        <lane id=":J8_0_0" index="0" speed="8.51" length="6.40" shape="32.89,40.58 31.52,41.90 30.59,42.92 30.07,44.10 29.91,45.92"/>
    </edge>
    <edge id=":J8_1" function="internal">
        <lane id=":J8_1_0" index="0" speed="6.94" length="7.85" shape="32.89,40.58 30.61,42.31 28.33,42.90 26.04,42.33 23.74,40.62"/>
        <lane id=":J8_1_1" index="1" speed="5.14" length="7.85" shape="30.62,38.33 29.47,39.21 28.31,39.50 27.16,39.21 26.00,38.35"/>
    </edge>
    <edge id=":J8_3" function="internal">
        <lane id=":J8_3_0" index="0" speed="8.34" length="6.21" shape="26.71,45.92 26.52,44.71 25.97,43.42 25.04,42.06 23.74,40.62"/>
    </edge>
    <edge id=":J9_0" function="internal">
        <lane id=":J9_0_0" index="0" speed="8.29" length="6.23" shape="54.09,21.56 52.85,21.74 51.56,22.29 50.19,23.21 48.77,24.51"/>
    </edge>
    <edge id=":J9_1" function="internal">
        <lane id=":J9_1_0" index="0" speed="8.60" length="6.47" shape="48.69,15.34 50.03,16.72 51.06,17.66 52.26,18.19 54.10,18.36"/>
    </edge>
    <edge id=":J9_2" function="internal">
        <lane id=":J9_2_0" index="0" speed="6.95" length="7.88" shape="48.69,15.34 50.44,17.62 51.03,19.90 50.47,22.20 48.77,24.51"/>
        <lane id=":J9_2_1" index="1" speed="5.15" length="7.88" shape="46.45,17.62 47.33,18.77 47.63,19.93 47.35,21.09 46.49,22.26"/>
    </edge>
    <edge id=":Zwycieska_0" function="internal">
        <lane id=":Zwycieska_0_0" index="0" speed="13.89" length="3.00" shape="-354.96,19.01 -351.96,18.99"/>
    </edge>

    <edge id="-Zwycieska_EW" from="J13" to="J1" priority="-1">
        <lane id="-Zwycieska_EW_0" index="0" speed="13.89" length="66.16" shape="274.86,18.87 341.02,18.37"/>
    </edge>
    <edge id="-Zwycieska_WW" from="J5" to="J11" priority="-1">
        <lane id="-Zwycieska_WW_0" index="0" speed="13.89" length="333.77" shape="-331.03,19.04 2.74,18.79"/>
    </edge>
    <edge id="E3" from="J9" to="J8" priority="-1">
        <lane id="E3_0" index="0" speed="13.89" length="22.59" shape="48.77,24.51 32.89,40.58"/>
        <lane id="E3_1" index="1" speed="13.89" length="22.59" shape="46.49,22.26 30.62,38.33"/>
    </edge>
    <edge id="E4" from="J10" to="J9" priority="-1">
        <lane id="E4_0" index="0" speed="13.89" length="21.69" shape="33.20,0.15 48.69,15.34"/>
        <lane id="E4_1" index="1" speed="13.89" length="21.69" shape="30.96,2.44 46.45,17.62"/>
    </edge>
    <edge id="E5" from="J11" to="J10" priority="-1">
        <lane id="E5_0" index="0" speed="13.89" length="22.37" shape="8.08,15.79 24.06,0.15"/>
        <lane id="E5_1" index="1" speed="13.89" length="22.37" shape="10.31,18.08 26.30,2.43"/>
    </edge>
    <edge id="E6" from="J8" to="J11" priority="-1">
        <lane id="E6_0" index="0" speed="13.89" length="22.19" shape="23.74,40.62 8.03,24.95"/>
        <lane id="E6_1" index="1" speed="13.89" length="22.19" shape="26.00,38.35 10.29,22.68"/>
    </edge>
    <edge id="E7" from="J12" to="Zwycieska" priority="-1">
        <lane id="E7_0" index="0" speed="13.89" length="60.63" shape="-415.59,19.75 -354.96,19.01"/>
    </edge>
    <edge id="Oltaszynska_NN" from="J8" to="J3" priority="-1">
        <lane id="Oltaszynska_NN_0" index="0" speed="13.89" length="698.04" shape="29.91,45.92 29.79,743.96"/>
    </edge>
    <edge id="Oltaszynska_NS" from="J3" to="J8" priority="-1">
        <lane id="Oltaszynska_NS_0" index="0" speed="13.89" length="698.04" shape="26.59,743.96 26.71,45.92"/>
    </edge>
    <edge id="Oltaszynska_SN" from="J4" to="J10" priority="-1">
        <lane id="Oltaszynska_SN_0" index="0" speed="13.89" length="537.57" shape="26.46,-542.72 30.18,-5.16"/>
    </edge>
    <edge id="Oltaszynska_SS" from="J10" to="J4" priority="-1">
        <lane id="Oltaszynska_SS_0" index="0" speed="13.89" length="537.57" shape="26.98,-5.14 23.26,-542.70"/>
    </edge>
    <edge id="Zwycieska_EE" from="J9" to="J13" priority="-1">
        <lane id="Zwycieska_EE_0" index="0" speed="13.89" length="220.48" shape="54.10,18.36 274.58,18.87"/>
    </edge>
    <edge id="Zwycieska_EW" from="J1" to="J13" priority="-1">
        <lane id="Zwycieska_EW_0" index="0" speed="13.89" length="66.16" shape="341.04,21.57 274.88,22.07"/>
    </edge>
    <edge id="Zwycieska_EW.13" from="J13" to="J9" priority="-1">
        <lane id="Zwycieska_EW.13_0" index="0" speed="13.89" length="220.48" shape="274.57,22.07 54.09,21.56"/>
    </edge>
    <edge id="Zwycieska_WE" from="Zwycieska" to="J5" priority="-1">
        <lane id="Zwycieska_WE_0" index="0" speed="13.89" length="20.64" shape="-351.96,18.99 -331.33,19.04"/>
    </edge>
    <edge id="Zwycieska_WW" from="J11" to="J5" priority="-1">
        <lane id="Zwycieska_WW_0" index="0" speed="13.89" length="333.77" shape="2.74,21.99 -331.03,22.24"/>
    </edge>
    <edge id="Zwycieska_WW.148" from="J5" to="Zwycieska" priority="-1">
        <lane id="Zwycieska_WW.148_0" index="0" speed="13.89" length="20.64" shape="-331.33,22.24 -351.97,22.19"/>
    </edge>

    <tlLogic id="J13" type="static" programID="0" offset="0">
        <phase duration="30" state="GG"/>
        <phase duration="3"  state="yy"/>
        <phase duration="15" state="rr"/>
    </tlLogic>
    <tlLogic id="J5" type="static" programID="0" offset="0">
        <phase duration="39" state="rr"/>
        <phase duration="39" state="rG"/>
        <phase duration="20" state="GG"/>
        <phase duration="3"  state="yy"/>
    </tlLogic>

    <junction id="J1" type="dead_end" x="341.03" y="19.97" incLanes="-Zwycieska_EW_0" intLanes="" shape="341.03,19.97 341.01,16.77 341.03,19.97"/>
    <junction id="J10" type="priority" x="28.63" y="2.39" incLanes="Oltaszynska_SN_0 E5_0 E5_1" intLanes=":J10_0_0 :J10_1_0 :J10_2_0 :J10_2_1" shape="29.84,3.58 34.32,-0.99 32.91,-2.56 32.42,-3.28 32.07,-3.95 31.85,-4.59 31.78,-5.17 25.38,-5.13 25.11,-3.90 24.77,-3.23 24.30,-2.52 23.69,-1.78 22.94,-1.00 27.42,3.58 28.23,3.05 28.63,2.98 29.03,3.05 29.44,3.25">
        <request index="0" response="0100" foes="0100" cont="0"/>
        <request index="1" response="0000" foes="0000" cont="0"/>
        <request index="2" response="0000" foes="0001" cont="0"/>
        <request index="3" response="0000" foes="0000" cont="0"/>
    </junction>
    <junction id="J11" type="priority" x="10.25" y="20.38" incLanes="E6_0 E6_1 -Zwycieska_WW_0" intLanes=":J11_0_0 :J11_1_0 :J11_1_1 :J11_3_0" shape="6.90,26.08 11.42,21.55 10.90,20.77 10.84,20.38 10.91,20.00 11.10,19.61 11.43,19.22 6.96,14.65 5.63,16.07 5.11,16.56 4.54,16.91 3.78,17.12 2.74,17.19 2.74,23.59 4.52,23.85 5.09,24.19 5.60,24.67 6.17,25.30">
        <request index="0" response="0000" foes="0000" cont="0"/>
        <request index="1" response="0000" foes="1000" cont="0"/>
        <request index="2" response="0000" foes="0000" cont="0"/>
        <request index="3" response="0010" foes="0010" cont="0"/>
    </junction>
    <junction id="J12" type="dead_end" x="-415.57" y="21.35" incLanes="" intLanes="" shape="-415.57,21.35 -415.61,18.15"/>
    <junction id="J13" type="traffic_light" x="274.72" y="20.47" incLanes="Zwycieska_EW_0 Zwycieska_EE_0" intLanes=":J13_0_0 :J13_1_0" shape="274.89,23.67 274.84,17.27 274.58,17.27 274.56,23.67">
        <request index="0" response="00" foes="00" cont="0"/>
        <request index="1" response="00" foes="00" cont="0"/>
    </junction>
    <junction id="J3" type="dead_end" x="28.19" y="743.96" incLanes="Oltaszynska_NN_0" intLanes="" shape="28.19,743.96 31.39,743.96 28.19,743.96"/>
    <junction id="J4" type="dead_end" x="24.86" y="-542.71" incLanes="Oltaszynska_SS_0" intLanes="" shape="24.86,-542.71 21.66,-542.69 24.86,-542.71"/>
    <junction id="J5" type="traffic_light" x="-331.18" y="20.64" incLanes="Zwycieska_WW_0 Zwycieska_WE_0" intLanes=":J5_0_0 :J5_1_0" shape="-331.03,23.84 -331.03,17.44 -331.32,17.44 -331.34,23.84">
        <request index="0" response="00" foes="00" cont="0"/>
        <request index="1" response="00" foes="00" cont="0"/>
    </junction>
    <junction id="J8" type="priority" x="28.31" y="38.39" incLanes="E3_0 E3_1 Oltaszynska_NS_0" intLanes=":J8_0_0 :J8_1_0 :J8_1_1 :J8_3_0" shape="34.03,41.71 29.48,37.21 28.70,37.73 28.31,37.80 27.92,37.74 27.53,37.54 27.13,37.22 22.62,41.75 24.00,43.32 24.49,44.04 24.83,44.71 25.04,45.34 25.11,45.92 31.51,45.92 31.78,44.12 32.12,43.55 32.61,43.03 33.24,42.45">
        <request index="0" response="0000" foes="0000" cont="0"/>
        <request index="1" response="0000" foes="1000" cont="0"/>
        <request index="2" response="0000" foes="0000" cont="0"/>
        <request index="3" response="0010" foes="0010" cont="0"/>
    </junction>
    <junction id="J9" type="priority" x="46.53" y="19.94" incLanes="Zwycieska_EW.13_0 E4_0 E4_1" intLanes=":J9_0_0 :J9_1_0 :J9_2_0 :J9_2_1" shape="54.08,23.16 54.10,16.76 52.27,16.48 51.69,16.13 51.16,15.64 50.58,14.99 49.81,14.20 45.33,18.77 45.87,19.55 45.94,19.94 45.87,20.34 45.68,20.74 45.35,21.13 49.91,25.63 51.46,24.25 52.17,23.77 52.85,23.43 53.49,23.23">
        <request index="0" response="0100" foes="0100" cont="0"/>
        <request index="1" response="0000" foes="0000" cont="0"/>
        <request index="2" response="0000" foes="0001" cont="0"/>
        <request index="3" response="0000" foes="0000" cont="0"/>
    </junction>
    <junction id="Zwycieska" type="priority" x="-353.45" y="20.59" incLanes="Zwycieska_WW.148_0 E7_0" intLanes=":Zwycieska_0_0" shape="-351.97,23.79 -351.96,17.39 -354.98,17.41 -354.94,20.61">
        <request index="0" response="0" foes="0" cont="0"/>
    </junction>

    <connection from="-Zwycieska_WW" to="E5" fromLane="0" toLane="0" via=":J11_3_0" dir="r" state="m" visibility="9.00"/>
    <connection from="E3" to="Oltaszynska_NN" fromLane="0" toLane="0" via=":J8_0_0" dir="r" state="M"/>
    <connection from="E3" to="E6" fromLane="0" toLane="0" via=":J8_1_0" dir="s" state="M"/>
    <connection from="E3" to="E6" fromLane="1" toLane="1" via=":J8_1_1" dir="s" state="M"/>
    <connection from="E4" to="Zwycieska_EE" fromLane="0" toLane="0" via=":J9_1_0" dir="r" state="M"/>
    <connection from="E4" to="E3" fromLane="0" toLane="0" via=":J9_2_0" dir="s" state="M"/>
    <connection from="E4" to="E3" fromLane="1" toLane="1" via=":J9_2_1" dir="s" state="M"/>
    <connection from="E5" to="Oltaszynska_SS" fromLane="0" toLane="0" via=":J10_1_0" dir="r" state="M"/>
    <connection from="E5" to="E4" fromLane="0" toLane="0" via=":J10_2_0" dir="s" state="M"/>
    <connection from="E5" to="E4" fromLane="1" toLane="1" via=":J10_2_1" dir="s" state="M"/>
    <connection from="E6" to="Zwycieska_WW" fromLane="0" toLane="0" via=":J11_0_0" dir="r" state="M"/>
    <connection from="E6" to="E5" fromLane="0" toLane="0" via=":J11_1_0" dir="s" state="M"/>
    <connection from="E6" to="E5" fromLane="1" toLane="1" via=":J11_1_1" dir="s" state="M"/>
    <connection from="E7" to="Zwycieska_WE" fromLane="0" toLane="0" via=":Zwycieska_0_0" dir="s" state="M"/>
    <connection from="Oltaszynska_NS" to="E6" fromLane="0" toLane="0" via=":J8_3_0" dir="r" state="m" visibility="9.00"/>
    <connection from="Oltaszynska_SN" to="E4" fromLane="0" toLane="0" via=":J10_0_0" dir="r" state="m" visibility="9.00"/>
    <connection from="Zwycieska_EE" to="-Zwycieska_EW" fromLane="0" toLane="0" via=":J13_1_0" tl="J13" linkIndex="1" dir="s" state="O"/>
    <connection from="Zwycieska_EW" to="Zwycieska_EW.13" fromLane="0" toLane="0" via=":J13_0_0" tl="J13" linkIndex="0" dir="s" state="O"/>
    <connection from="Zwycieska_EW.13" to="E3" fromLane="0" toLane="0" via=":J9_0_0" dir="r" state="m" visibility="9.00"/>
    <connection from="Zwycieska_WE" to="-Zwycieska_WW" fromLane="0" toLane="0" via=":J5_1_0" tl="J5" linkIndex="1" dir="s" state="O"/>
    <connection from="Zwycieska_WW" to="Zwycieska_WW.148" fromLane="0" toLane="0" via=":J5_0_0" tl="J5" linkIndex="0" dir="s" state="O"/>

    <connection from=":J10_0" to="E4" fromLane="0" toLane="0" dir="r" state="M"/>
    <connection from=":J10_1" to="Oltaszynska_SS" fromLane="0" toLane="0" dir="r" state="M"/>
    <connection from=":J10_2" to="E4" fromLane="0" toLane="0" dir="s" state="M"/>
    <connection from=":J10_2" to="E4" fromLane="1" toLane="1" dir="s" state="M"/>
    <connection from=":J11_0" to="Zwycieska_WW" fromLane="0" toLane="0" dir="r" state="M"/>
    <connection from=":J11_1" to="E5" fromLane="0" toLane="0" dir="s" state="M"/>
    <connection from=":J11_1" to="E5" fromLane="1" toLane="1" dir="s" state="M"/>
    <connection from=":J11_3" to="E5" fromLane="0" toLane="0" dir="r" state="M"/>
    <connection from=":J13_0" to="Zwycieska_EW.13" fromLane="0" toLane="0" dir="s" state="M"/>
    <connection from=":J13_1" to="-Zwycieska_EW" fromLane="0" toLane="0" dir="s" state="M"/>
    <connection from=":J5_0" to="Zwycieska_WW.148" fromLane="0" toLane="0" dir="s" state="M"/>
    <connection from=":J5_1" to="-Zwycieska_WW" fromLane="0" toLane="0" dir="s" state="M"/>
    <connection from=":J8_0" to="Oltaszynska_NN" fromLane="0" toLane="0" dir="r" state="M"/>
    <connection from=":J8_1" to="E6" fromLane="0" toLane="0" dir="s" state="M"/>
    <connection from=":J8_1" to="E6" fromLane="1" toLane="1" dir="s" state="M"/>
    <connection from=":J8_3" to="E6" fromLane="0" toLane="0" dir="r" state="M"/>
    <connection from=":J9_0" to="E3" fromLane="0" toLane="0" dir="r" state="M"/>
    <connection from=":J9_1" to="Zwycieska_EE" fromLane="0" toLane="0" dir="r" state="M"/>
    <connection from=":J9_2" to="E3" fromLane="0" toLane="0" dir="s" state="M"/>
    <connection from=":J9_2" to="E3" fromLane="1" toLane="1" dir="s" state="M"/>
    <connection from=":Zwycieska_0" to="Zwycieska_WE" fromLane="0" toLane="0" dir="s" state="M"/>

    <roundabout nodes="J10 J11 J8 J9" edges="E3 E4 E5 E6"/>

</net>
